this is foss lab
new line.
q
w
e
r
t
y
u
u
i
oo
p
a
s
d
f
g
h
